LTspice 24.0.9 for Windows
Circuit: * C:\Users\rahim\Downloads\KiCad Projects\PCB_Business_Card\Antenna_Simulations\LTSpice_Equivalent_Circuit\NFC_LTSpice_Schematic.asc
Start Time: Sun Apr 14 00:14:08 2024
solver = Normal
Maximum thread count: 8
tnom = 27
temp = 27
method = modified trap
.OP point found by inspection.
Total elapsed time: 0.046 seconds.

